*Heading
Trees in big new simulation
** PARTS
**
*Part, name=QSM_TREE
*Node
1,0,0,0
2,-0.1183,0.058001,1.6102
3,-0.1686,0.065802,4.0722
4,-0.1545,-0.0066986,6.4774
5,-0.1943,-0.1157,8.7579
6,-0.6633,0.080502,10.4732
7,-0.6308,0.2037,11.8935
8,-0.6973,0.2482,13.5836
9,-0.5041,0.4961,15.2804
10,-0.6082,1.353,16.2818
11,-0.19734,-0.1744,8.1314
12,-0.195,-0.3795,8.2792
13,-0.4225,-1.0221,9.0626
14,-0.5037,-1.5274,10.0433
15,-0.4893,-1.9352,10.782
16,-0.5512,-2.3144,11.4828
17,-0.5849,-2.7574,12.4083
18,-0.60812,0.18931,11.2532
19,-0.5137,0.3015,11.5635
20,-0.5569,0.7364,11.6161
** ... 376 like lines cut
*Element, type=B31
2,1,2
2,1,2
3,2,3
4,3,4
5,4,5
6,5,6
7,6,7
8,7,8
9,8,9
10,9,10
11,4,11
12,11,12
13,12,13
14,13,14
15,14,15
16,15,16
17,16,17
18,6,18
19,18,19
20,19,20
** ... 376 like lines cut
**start of the sections
*Elset, elset=set2
2,
*Elset, elset=set3
3,
*Elset, elset=set4
4,
*Elset, elset=set5
5,
*Elset, elset=set6
6,
*Elset, elset=set7
7,
*Elset, elset=set8
8,
*Elset, elset=set9
9,
*Elset, elset=set10
10,
*Elset, elset=set11
11,
*Elset, elset=set12
12,
*Elset, elset=set13
13,
*Elset, elset=set14
14,
*Elset, elset=set15
15,
*Elset, elset=set16
16,
*Elset, elset=set17
17,
*Elset, elset=set18
18,
*Elset, elset=set19
19,
*Elset, elset=set20
20,
*Elset, elset=set21
21,
** ... 750 like lines cut
*Elset, elset=ELALL, GENERATE
2,396,1
*Elset, elset=set_150, GENERATE
2,151,1
*Elset, elset=set_30, GENERATE
2,31,1
*Elset, elset=set_5, GENERATE
2,6,1
*Elset, elset=output_set
2,3,4,5,6
**start of the beams
*Beam Section, elset=set2,material=wood,section=circ
0.099614
0.99979,-0.020426,0.0031679
*Beam Section, elset=set3,material=wood,section=circ
0.093733
0.99953,0.0058592,-0.030129
*Beam Section, elset=set4,material=wood,section=circ
0.08963
0.99871,-0.017429,-0.047735
*Beam Section, elset=set5,material=wood,section=circ
0.06987
0.95878,-0.26215,0.10967
*Beam Section, elset=set6,material=wood,section=circ
0.055381
0.996,0.022792,0.086395
*Beam Section, elset=set7,material=wood,section=circ
0.046658
0.99888,-0.039304,0.026301
*Beam Section, elset=set8,material=wood,section=circ
0.036521
0.98327,0.11196,0.14365
*Beam Section, elset=set9,material=wood,section=circ
0.028973
0.75744,-0.078741,0.64814
*Beam Section, elset=set10,material=wood,section=circ
0.014757
0.83017,0.47113,-0.29809
*Beam Section, elset=set11,material=wood,section=circ
0.045106
2.3126,0.036638,-3.2083
*Beam Section, elset=set12,material=wood,section=circ
0.039294
0.75438,-0.21907,-0.6188
*Beam Section, elset=set13,material=wood,section=circ
0.039473
0.88654,-0.073407,-0.45679
*Beam Section, elset=set14,material=wood,section=circ
0.033145
0.87533,0.017064,-0.48323
*Beam Section, elset=set15,material=wood,section=circ
0.029441
0.87686,-0.077448,-0.47447
*Beam Section, elset=set16,material=wood,section=circ
0.029388
0.90151,-0.032829,-0.43152
*Beam Section, elset=set17,material=wood,section=circ
0.02077
0.50792,-0.25876,-0.82162
*Beam Section, elset=set18,material=wood,section=circ
0.042453
0.90411,0.27514,0.32694
*Beam Section, elset=set19,material=wood,section=circ
0.030085
0.11949,-0.098142,0.98797
*Beam Section, elset=set20,material=wood,section=circ
0.021902
0.65057,-0.14644,0.74519
*Beam Section, elset=set21,material=wood,section=circ
0.021113
0.7047,-0.1019,0.70215
** ... 1125 like lines cut
*Dashpot, elset=Springs/Dashpots-1-dashpot
4
10
*Element, type=Dashpot1, elset=Springs/Dashpots-1-dashpot
398, 1
*End part
** Define and assembly - necessary for roots. 
**
*Assembly, name=Assembly1
**  
*Instance, name=Instance1, part=QSM_TREE
*End Instance
**  
*Element, type=CONN3D2
1, Instance1.1, 
*Connector Section, elset=Wire-1-Set-1, behavior=ConnSect-1
UJoint,
"Datum csys-2",
*Nset, nset=Wire-1-Set-1, instance=Instance1
 1,
*Elset, elset=Wire-1-Set-1
 1,
*Nset, nset=_M6, internal, instance=Instance1
 1,
*Orientation, name="Datum csys-2"
          1.,           0.,           0.,           0.,           1.,           0.
3, 0.
*End Assembly
*Connector Behavior, name=ConnSect-1
*Connector Elasticity, component=4
5000000.,
*Connector Elasticity, component=6
5000000.,
**
** MATERIALS
**
*Material, name=wood
*Damping, alpha=0.2, beta=0.001, composite=0, structural=0
*Density
800,
*Elastic
7000000000, 0.38
*Surface Interaction, name=Contact1
1.,
*Contact
*Contact Inclusions, ALL EXTERIOR
*Contact Property Assignment
 ,  , Contact1
**No ENCASTRE boundary because we have a root model
*Amplitude, name=Xwind
0,-2.6015
0.1,-2.7003
0.2,-2.7195
0.3,-2.2952
0.4,-2.4653
0.5,-2.412
0.6,-2.3312
0.7,-2.2428
0.8,-2.0105
0.9,-1.9432
1,-1.7078
1.1,-1.536
1.2,-1.2135
1.3,-1.0922
1.4,-1.5268
1.5,-1.6173
1.6,-1.7413
1.7,-1.4295
1.8,-1.9403
1.9,-1.9775
** ... 2981 like lines cut
*Amplitude, name=Ywind
0,-1.1147
0.1,-1.2125
0.2,-1.4855
0.3,-1.6812
0.4,-1.5762
0.5,-1.5205
0.6,-1.5835
0.7,-1.6215
0.8,-1.521
0.9,-1.4345
1,-1.3485
1.1,-1.2685
1.2,-1.2123
1.3,-1.1093
1.4,-0.7915
1.5,-2.1008
1.6,-3.31
1.7,-3.0625
1.8,-3.267
1.9,-3.0953
** ... 2981 like lines cut
*Amplitude, name=CWS_Amp
0,0
0.1,0.1
0.2,0.2
0.3,0.3
0.4,0.4
0.5,0.5
0.6,0.6
0.7,0.7
0.8,0.8
0.9,0.9
1,1
1.1,1.1
1.2,1.2
1.3,1.3
1.4,1.4
1.5,1.5
1.6,1.6
1.7,1.7
1.8,1.8
1.9,1.9
** ... 1980 like lines cut
**No Aqua
*STEP,name=Gravity,NLGEOM=YES,UNSYMM=YES
*STATIC
1., 5., 5e-11, 1.
*DLOAD
Assembly1.Instance1.ELALL,GRAV,9.8,0.0,0.0,-1.0,
*End Step
** STEP: Frequency
*Step, name=Frequency, nlgeom=YES, perturbation
*Frequency, eigensolver=subspace, normalization=displacement
100, , , 38, 30
** OUTPUT REQUESTS
*Restart, write, frequency=0
** FIELD OUTPUT: F-Output-1
*Output, field, variable=PRESELECT
*End Step
** STEP: Validation_Wind
*Step, name=Validation_Wind, NLGEOM=YES, UNSYMM=YES, INC=5000000
**DRAG LOADS
*DYNAMIC
0.1,300, 1e-11, 0.25
*DLOAD
Assembly1.Instance1.set2, WDD, 1,0.19923,0.82,1,Xwind,Ywind
Assembly1.Instance1.set3, WDD, 1,0.18747,0.82,1,Xwind,Ywind
Assembly1.Instance1.set4, WDD, 1,0.17926,0.82,1,Xwind,Ywind
Assembly1.Instance1.set5, WDD, 1,0.13974,0.82,1,Xwind,Ywind
Assembly1.Instance1.set6, WDD, 1,0.11076,0.82,1,Xwind,Ywind
Assembly1.Instance1.set7, WDD, 1,0.093315,0.82,1,Xwind,Ywind
Assembly1.Instance1.set8, WDD, 1,0.073043,0.82,1,Xwind,Ywind
Assembly1.Instance1.set9, WDD, 1,0.057945,0.82,1,Xwind,Ywind
Assembly1.Instance1.set10, WDD, 1,0.029514,0.82,1,Xwind,Ywind
Assembly1.Instance1.set11, WDD, 1,0.090212,0.82,1,Xwind,Ywind
Assembly1.Instance1.set12, WDD, 1,0.078589,0.82,1,Xwind,Ywind
Assembly1.Instance1.set13, WDD, 1,0.078946,0.82,1,Xwind,Ywind
Assembly1.Instance1.set14, WDD, 1,0.06629,0.82,1,Xwind,Ywind
Assembly1.Instance1.set15, WDD, 1,0.058882,0.82,1,Xwind,Ywind
Assembly1.Instance1.set16, WDD, 1,0.058777,0.82,1,Xwind,Ywind
Assembly1.Instance1.set17, WDD, 1,0.04154,0.82,1,Xwind,Ywind
Assembly1.Instance1.set18, WDD, 1,0.084905,0.82,1,Xwind,Ywind
Assembly1.Instance1.set19, WDD, 1,0.06017,0.82,1,Xwind,Ywind
Assembly1.Instance1.set20, WDD, 1,0.043805,0.82,1,Xwind,Ywind
Assembly1.Instance1.set21, WDD, 1,0.042226,0.82,1,Xwind,Ywind
** ... 375 like lines cut
*EL PRINT, ELSET=Assembly1.Instance1.output_set, FREQUENCY=1
7,11
E11,
*End Step
** STEP: CWS_Wind
*Step, name=CWS_Wind, NLGEOM=YES, UNSYMM=YES, INC=50000
**DRAG LOADS
*DYNAMIC
0.1,200, 1e-11, 0.25
*DLOAD
Assembly1.Instance1.set2, WDD, 1,0.19923,0.82,1,CWS_Amp
Assembly1.Instance1.set3, WDD, 1,0.18747,0.82,1,CWS_Amp
Assembly1.Instance1.set4, WDD, 1,0.17926,0.82,1,CWS_Amp
Assembly1.Instance1.set5, WDD, 1,0.13974,0.82,1,CWS_Amp
Assembly1.Instance1.set6, WDD, 1,0.11076,0.82,1,CWS_Amp
Assembly1.Instance1.set7, WDD, 1,0.093315,0.82,1,CWS_Amp
Assembly1.Instance1.set8, WDD, 1,0.073043,0.82,1,CWS_Amp
Assembly1.Instance1.set9, WDD, 1,0.057945,0.82,1,CWS_Amp
Assembly1.Instance1.set10, WDD, 1,0.029514,0.82,1,CWS_Amp
Assembly1.Instance1.set11, WDD, 1,0.090212,0.82,1,CWS_Amp
Assembly1.Instance1.set12, WDD, 1,0.078589,0.82,1,CWS_Amp
Assembly1.Instance1.set13, WDD, 1,0.078946,0.82,1,CWS_Amp
Assembly1.Instance1.set14, WDD, 1,0.06629,0.82,1,CWS_Amp
Assembly1.Instance1.set15, WDD, 1,0.058882,0.82,1,CWS_Amp
Assembly1.Instance1.set16, WDD, 1,0.058777,0.82,1,CWS_Amp
Assembly1.Instance1.set17, WDD, 1,0.04154,0.82,1,CWS_Amp
Assembly1.Instance1.set18, WDD, 1,0.084905,0.82,1,CWS_Amp
Assembly1.Instance1.set19, WDD, 1,0.06017,0.82,1,CWS_Amp
Assembly1.Instance1.set20, WDD, 1,0.043805,0.82,1,CWS_Amp
Assembly1.Instance1.set21, WDD, 1,0.042226,0.82,1,CWS_Amp
** ... 375 like lines cut
*EL PRINT, ELSET=Assembly1.Instance1.output_set, FREQUENCY=1
7,11
E11,
*End Step